14
Frame 1
H -0.7346 0.0399 0.0000
H 0.6407 -1.0476 -0.5557
C 0.0194 -0.1485 -0.8090
H 1.3333 1.3731 0.0339
C 0.9275 1.0727 -0.9724
H 2.5980 1.7267 -2.2155
H 1.6957 0.2655 -2.8570
C 2.0840 0.7700 -1.9326
H 3.7064 -0.2667 -1.8501
O 2.9801 -0.0857 -1.2429
H -1.2524 -1.0777 -1.9282
O -0.6427 -0.3420 -2.0508
H -0.2673 1.9296 -2.2291
O 0.2050 2.1981 -1.4294
